/*--------------------------------*- C++ -*----------------------------------* \
| =========                 |                                                 |
| \\      /  F ield         | OpenFOAM: The Open Source CFD Toolbox           |
|  \\    /   O peration     | Version:  v1812                                 |
|   \\  /    A nd           | Web:      www.OpenFOAM.com                      |
|    \\/     M anipulation  |                                                 |
\*---------------------------------------------------------------------------*/
FoamFile
{
    version     2.0;
    format      ascii;
    class       dictionary;
    object      turbulenceProperties;
}
// * * * * * * * * * * * * * * * * * * * * * * * * * * * * * * * * * * * * * //

simulationType RAS;

RAS
{
    RASModel       kOmegaSST;

    turbulence      on;

    delta           cubeRootVol;
kOmegaSSTCoeffs
    {
        alphaK1     0.85034;
        alphaK2     1.0;
        alphaOmega1 0.5;
        alphaOmega2 0.85616;
        Prt         1.0;    // only for compressible
        beta1       0.075;
        beta2       0.0828;
        betaStar    0.09;
        gamma1      0.5532;
        gamma2      0.4403;
       // a1          0.31;
        a1          0.31;
        b1          1.0;
        c1          10.0;
        F3          yes;
        Cmub        0.6;
    }
    printCoeffs     on;
}


// ************************************************************************* //
