/*--------------------------------*- C++ -*----------------------------------*\
| =========                 |                                                 |
| \\      /  F ield         | OpenFOAM: The Open Source CFD Toolbox           |
|  \\    /   O peration     | Version:  v2012                                 |
|   \\  /    A nd           | Website:  www.openfoam.com                      |
|    \\/     M anipulation  |                                                 |
\*---------------------------------------------------------------------------*/
FoamFile
{
    version     2.0;
    format      ascii;
    class       polyBoundaryMesh;
    location    "constant/polyMesh";
    object      boundary;
}
// * * * * * * * * * * * * * * * * * * * * * * * * * * * * * * * * * * * * * //

9
(
    inlet
    {
        type            patch;
        nFaces          0;
        startFace       20033;
    }
    outlet
    {
        type            patch;
        nFaces          0;
        startFace       20033;
    }
    front
    {
        type            empty;
        inGroups        1(empty);
        nFaces          10123;
        startFace       20033;
    }
    back
    {
        type            empty;
        inGroups        1(empty);
        nFaces          10123;
        startFace       30156;
    }
    hub
    {
        type            wall;
        inGroups        1(wall);
        nFaces          128;
        startFace       40279;
    }
    tip
    {
        type            wall;
        inGroups        1(wall);
        nFaces          0;
        startFace       40407;
    }
    procBoundary6to1
    {
        type            processor;
        inGroups        1(processor);
        nFaces          85;
        startFace       40407;
        matchTolerance  0.0001;
        transform       unknown;
        myProcNo        6;
        neighbProcNo    1;
    }
    procBoundary6to5
    {
        type            processor;
        inGroups        1(processor);
        nFaces          155;
        startFace       40492;
        matchTolerance  0.0001;
        transform       unknown;
        myProcNo        6;
        neighbProcNo    5;
    }
    procBoundary6to7
    {
        type            processor;
        inGroups        1(processor);
        nFaces          58;
        startFace       40647;
        matchTolerance  0.0001;
        transform       unknown;
        myProcNo        6;
        neighbProcNo    7;
    }
)

// ************************************************************************* //
