/*--------------------------------*- C++ -*----------------------------------*\
| =========                 |                                                 |
| \\      /  F ield         | OpenFOAM: The Open Source CFD Toolbox           |
|  \\    /   O peration     | Version:  v2012                                 |
|   \\  /    A nd           | Website:  www.openfoam.com                      |
|    \\/     M anipulation  |                                                 |
\*---------------------------------------------------------------------------*/
FoamFile
{
    version     2.0;
    format      ascii;
    class       polyBoundaryMesh;
    location    "constant/polyMesh";
    object      boundary;
}
// * * * * * * * * * * * * * * * * * * * * * * * * * * * * * * * * * * * * * //

8
(
    inlet
    {
        type            patch;
        nFaces          0;
        startFace       20379;
    }
    outlet
    {
        type            patch;
        nFaces          0;
        startFace       20379;
    }
    front
    {
        type            empty;
        inGroups        1(empty);
        nFaces          10302;
        startFace       20379;
    }
    back
    {
        type            empty;
        inGroups        1(empty);
        nFaces          10302;
        startFace       30681;
    }
    hub
    {
        type            wall;
        inGroups        1(wall);
        nFaces          65;
        startFace       40983;
    }
    tip
    {
        type            wall;
        inGroups        1(wall);
        nFaces          75;
        startFace       41048;
    }
    procBoundary0to1
    {
        type            processor;
        inGroups        1(processor);
        nFaces          160;
        startFace       41123;
        matchTolerance  0.0001;
        transform       unknown;
        myProcNo        0;
        neighbProcNo    1;
    }
    procBoundary0to2
    {
        type            processor;
        inGroups        1(processor);
        nFaces          150;
        startFace       41283;
        matchTolerance  0.0001;
        transform       unknown;
        myProcNo        0;
        neighbProcNo    2;
    }
)

// ************************************************************************* //
