/*--------------------------------*- C++ -*----------------------------------*\
  =========                 |				
  \\      /  F ield         | OpenFOAM: The Open Source CFD Toolbox
   \\    /   O peration     | Website:  https://openfoam.org
    \\  /    A nd           | Version:  8                                   	
     \\/     M anipulation  |
\*---------------------------------------------------------------------------*/
FoamFile
{
    version     2.0;
    format      ascii;
    class       dictionary;
    object      fvSchemes;
}
// * * * * * * * * * * * * * * * * * * * * * * * * * * * * * * * * * * * * * //

ddtSchemes
{
    default         CrankNicolson 0.7;
}

gradSchemes
{
    //default         Gauss linear;
    default        cellLimited Gauss linear 1;
    limitedGrad    cellLimited Gauss linear 1;
}

divSchemes
{
    div(rhoPhi,U)  Gauss linearUpwindV default;
   // div(phi,alpha)  Gauss upwind;
    div(phi,U) Gauss linearUpwind grad(U);

    //div(phi,alpha)   Gauss vanLeer;
   // div(phi,alpha)   Gauss interfaceCompression vanLeer 1;
//div(phi,alpha)      Gauss noInterfaceCompression vanLeer;

//For OF7 and older
    div(phi,alpha)  bounded Gauss vanLeer;
      div(phirb,alpha) bounded Gauss linear;
    //div(phirb,alpha) Gauss interfaceCompression;

    div(phi,R) Gauss linear;
    div(R)  Gauss linear;
    //div(phi,k)      bounded Gauss upwind;
   // div(phi,omega)  bounded Gauss upwind;
    div(phi,k)      Gauss linearUpwind limitedGrad;
   div(phi,omega)  Gauss linearUpwind limitedGrad;

    div(((rho*nuEff)*dev2(T(grad(U))))) Gauss linear;
}

laplacianSchemes
{
    default         Gauss linear limited corrected 0.5;
}

interpolationSchemes
{
    default         linear;
}

snGradSchemes
{
    default         limited corrected 0.5;
}

wallDist
{
    method meshWave;
}
fluxRequired
{
    default none;
    p_rgh;
   pcorr;
    alphawater;
}

// ************************************************************************* //
