/*--------------------------------*- C++ -*----------------------------------*\
| =========                 |                                                 |
| \\      /  F ield         | OpenFOAM: The Open Source CFD Toolbox           |
|  \\    /   O peration     | Version:  v2012                                 |
|   \\  /    A nd           | Website:  www.openfoam.com                      |
|    \\/     M anipulation  |                                                 |
\*---------------------------------------------------------------------------*/
FoamFile
{
    version     2.0;
    format      ascii;
    class       polyBoundaryMesh;
    location    "constant/polyMesh";
    object      boundary;
}
// * * * * * * * * * * * * * * * * * * * * * * * * * * * * * * * * * * * * * //

9
(
    inlet
    {
        type            patch;
        nFaces          0;
        startFace       19964;
    }
    outlet
    {
        type            patch;
        nFaces          0;
        startFace       19964;
    }
    front
    {
        type            empty;
        inGroups        1(empty);
        nFaces          10098;
        startFace       19964;
    }
    back
    {
        type            empty;
        inGroups        1(empty);
        nFaces          10098;
        startFace       30062;
    }
    hub
    {
        type            wall;
        inGroups        1(wall);
        nFaces          0;
        startFace       40160;
    }
    tip
    {
        type            wall;
        inGroups        1(wall);
        nFaces          140;
        startFace       40160;
    }
    procBoundary5to1
    {
        type            processor;
        inGroups        1(processor);
        nFaces          65;
        startFace       40300;
        matchTolerance  0.0001;
        transform       unknown;
        myProcNo        5;
        neighbProcNo    1;
    }
    procBoundary5to6
    {
        type            processor;
        inGroups        1(processor);
        nFaces          155;
        startFace       40365;
        matchTolerance  0.0001;
        transform       unknown;
        myProcNo        5;
        neighbProcNo    6;
    }
    procBoundary5to7
    {
        type            processor;
        inGroups        1(processor);
        nFaces          104;
        startFace       40520;
        matchTolerance  0.0001;
        transform       unknown;
        myProcNo        5;
        neighbProcNo    7;
    }
)

// ************************************************************************* //
