/*--------------------------------*- C++ -*----------------------------------*\
| =========                 |                                                 |
| \\      /  F ield         | OpenFOAM: The Open Source CFD Toolbox           |
|  \\    /   O peration     | Version:  v2012                                 |
|   \\  /    A nd           | Website:  www.openfoam.com                      |
|    \\/     M anipulation  |                                                 |
\*---------------------------------------------------------------------------*/
FoamFile
{
    version     2.0;
    format      ascii;
    class       polyBoundaryMesh;
    location    "constant/polyMesh";
    object      boundary;
}
// * * * * * * * * * * * * * * * * * * * * * * * * * * * * * * * * * * * * * //

10
(
    inlet
    {
        type            patch;
        nFaces          0;
        startFace       20179;
    }
    outlet
    {
        type            patch;
        nFaces          0;
        startFace       20179;
    }
    front
    {
        type            empty;
        inGroups        1(empty);
        nFaces          10203;
        startFace       20179;
    }
    back
    {
        type            empty;
        inGroups        1(empty);
        nFaces          10203;
        startFace       30382;
    }
    hub
    {
        type            wall;
        inGroups        1(wall);
        nFaces          72;
        startFace       40585;
    }
    tip
    {
        type            wall;
        inGroups        1(wall);
        nFaces          65;
        startFace       40657;
    }
    procBoundary7to5
    {
        type            processor;
        inGroups        1(processor);
        nFaces          104;
        startFace       40722;
        matchTolerance  0.0001;
        transform       unknown;
        myProcNo        7;
        neighbProcNo    5;
    }
    procBoundary7to6
    {
        type            processor;
        inGroups        1(processor);
        nFaces          58;
        startFace       40826;
        matchTolerance  0.0001;
        transform       unknown;
        myProcNo        7;
        neighbProcNo    6;
    }
    procBoundary7to8
    {
        type            processor;
        inGroups        1(processor);
        nFaces          84;
        startFace       40884;
        matchTolerance  0.0001;
        transform       unknown;
        myProcNo        7;
        neighbProcNo    8;
    }
    procBoundary7to9
    {
        type            processor;
        inGroups        1(processor);
        nFaces          71;
        startFace       40968;
        matchTolerance  0.0001;
        transform       unknown;
        myProcNo        7;
        neighbProcNo    9;
    }
)

// ************************************************************************* //
