/*--------------------------------*- C++ -*----------------------------------*\
| =========                 |                                                 |
| \\      /  F ield         | OpenFOAM: The Open Source CFD Toolbox           |
|  \\    /   O peration     | Version:  v2012                                 |
|   \\  /    A nd           | Website:  www.openfoam.com                      |
|    \\/     M anipulation  |                                                 |
\*---------------------------------------------------------------------------*/
FoamFile
{
    version     2.0;
    format      ascii;
    class       polyBoundaryMesh;
    location    "constant/polyMesh";
    object      boundary;
}
// * * * * * * * * * * * * * * * * * * * * * * * * * * * * * * * * * * * * * //

9
(
    inlet
    {
        type            patch;
        nFaces          0;
        startFace       20274;
    }
    outlet
    {
        type            patch;
        nFaces          0;
        startFace       20274;
    }
    front
    {
        type            empty;
        inGroups        1(empty);
        nFaces          10248;
        startFace       20274;
    }
    back
    {
        type            empty;
        inGroups        1(empty);
        nFaces          10248;
        startFace       30522;
    }
    hub
    {
        type            wall;
        inGroups        1(wall);
        nFaces          72;
        startFace       40770;
    }
    tip
    {
        type            wall;
        inGroups        1(wall);
        nFaces          62;
        startFace       40842;
    }
    procBoundary1to0
    {
        type            processor;
        inGroups        1(processor);
        nFaces          160;
        startFace       40904;
        matchTolerance  0.0001;
        transform       unknown;
        myProcNo        1;
        neighbProcNo    0;
    }
    procBoundary1to5
    {
        type            processor;
        inGroups        1(processor);
        nFaces          65;
        startFace       41064;
        matchTolerance  0.0001;
        transform       unknown;
        myProcNo        1;
        neighbProcNo    5;
    }
    procBoundary1to6
    {
        type            processor;
        inGroups        1(processor);
        nFaces          85;
        startFace       41129;
        matchTolerance  0.0001;
        transform       unknown;
        myProcNo        1;
        neighbProcNo    6;
    }
)

// ************************************************************************* //
